<?xml version="1.0" encoding="UTF-8"?>

<!-- generated on 2022-03-21 13:34:58 by Eclipse SUMO polyconvert Version 1.12.0
<configuration xmlns:xsi="http://www.w3.org/2001/XMLSchema-instance" xsi:noNamespaceSchemaLocation="http://sumo.dlr.de/xsd/polyconvertConfiguration.xsd">

    <input>
        <net-file value="map2.net.xml"/>
        <osm-files value="map2.osm"/>
        <type-file value="typemap.xml"/>
    </input>

    <output>
        <output-file value="map2.poly.xml"/>
    </output>

    <processing>
        <poi-layer-offset value="5"/>
    </processing>

</configuration>
-->

<additional xmlns:xsi="http://www.w3.org/2001/XMLSchema-instance" xsi:noNamespaceSchemaLocation="http://sumo.dlr.de/xsd/additional_file.xsd">
    <location netOffset="-588850.83,-4478388.67" convBoundary="-0.00,-1.87,3896.63,2733.23" origBoundary="-79.952082,40.451072,-79.906047,40.475737" projParameter="+proj=utm +zone=17 +ellps=WGS84 +datum=WGS84 +units=m +no_defs"/>

    <poly id="100398721" type="building" color="255,230,230" fill="1" layer="-1.00" shape="1674.173166,1433.071503 1666.505814,1436.742292 1675.836992,1456.050249 1676.681426,1455.638593 1677.781623,1457.916678 1682.608831,1455.610377 1681.426002,1453.153662 1683.421831,1452.189741 1674.173166,1433.071503"/>
    <poly id="109563467" type="amenity" color="237,199,199" fill="1" layer="-1.00" shape="2834.653296,846.197404 2836.560770,848.319025 2834.871681,849.830396 2855.134161,872.382299 2865.979788,862.723315 2864.306605,860.859901 2866.124240,859.239092 2847.560112,838.573081 2844.885075,840.960524 2842.952574,838.805289 2834.653296,846.197404"/>
    <poly id="109563467#1" type="building" color="255,230,230" fill="1" layer="-1.00" shape="2834.653296,846.197404 2836.560770,848.319025 2834.871681,849.830396 2855.134161,872.382299 2865.979788,862.723315 2864.306605,860.859901 2866.124240,859.239092 2847.560112,838.573081 2844.885075,840.960524 2842.952574,838.805289 2834.653296,846.197404"/>
    <poly id="109563472" type="building" color="255,230,230" fill="1" layer="-1.00" shape="2960.847067,849.531549 2866.270282,932.446733 2885.130915,953.804752 2900.954981,939.932607 2906.926867,946.689149 2912.593072,941.718352 2910.911848,939.821522 2924.138630,928.226777 2933.138288,938.406541 2948.962478,924.534495 2956.908357,933.513462 2973.555548,918.918836 2983.574456,919.974307 2991.872444,912.693357 2989.254416,909.741437 3005.404642,895.573755 2966.612638,851.678322 2983.045433,852.501612 2985.817821,795.871567 2968.672675,795.039537 2968.819799,792.032729 2974.425582,787.161151 2977.068553,790.157778 2979.545776,788.001094 2977.178932,785.307605 2986.745145,776.965321 2969.248964,757.044835 2970.603203,755.873544 2941.707475,722.979521 2919.643537,742.215017 2964.279414,793.009513 2960.847067,849.531549"/>
    <poly id="109670443" type="building" color="255,230,230" fill="1" layer="-1.00" shape="2402.596793,1033.712918 2421.545874,1075.020886 2441.993873,1065.722649 2431.660508,1043.181941 2428.530998,1044.609223 2426.961623,1041.181810 2424.343807,1042.371093 2422.790981,1038.977188 2420.036695,1040.231420 2418.822420,1037.585470 2415.795331,1038.958497 2414.688299,1036.558096 2411.797679,1037.866177 2410.244711,1034.483376 2407.191915,1035.878297 2405.581219,1032.361570 2402.596793,1033.712918"/>
    <poly id="109670445" type="building" color="255,230,230" fill="1" layer="-1.00" shape="2397.418605,1082.853283 2415.056854,1074.486584 2399.147385,1041.209036 2376.860653,1051.783898 2390.421963,1080.136847 2389.074186,1083.573100 2396.070690,1086.300635 2397.418605,1082.853283"/>
    <poly id="109670446" type="parking" color="184,184,179" fill="1" layer="-1.00" shape="2367.840692,1016.780792 2361.956857,1020.161771 2371.809394,1041.819467 2391.655300,1032.524856 2394.009744,1027.202456 2367.840692,1016.780792"/>
    <poly id="109677169" type="amenity" color="237,199,199" fill="1" layer="-1.00" shape="2463.026604,1327.528316 2459.087300,1329.312064 2460.235037,1331.846193 2445.450053,1338.526787 2443.492701,1334.239790 2445.138348,1333.493834 2443.404085,1329.686939 2445.680645,1328.660031 2436.010108,1307.426302 2396.736900,1325.176670 2405.614859,1344.657688 2394.496300,1349.684499 2398.311745,1358.057424 2396.461548,1358.889711 2398.930900,1364.304227 2400.755526,1363.482731 2407.428352,1378.129755 2414.206834,1375.070580 2415.602427,1378.140615 2441.036849,1366.649522 2440.376193,1365.198219 2450.701819,1360.528164 2452.526452,1359.706681 2453.880725,1362.687404 2474.745190,1353.250029 2463.026604,1327.528316"/>
    <poly id="109677169#1" type="building" color="255,230,230" fill="1" layer="-1.00" shape="2463.026604,1327.528316 2459.087300,1329.312064 2460.235037,1331.846193 2445.450053,1338.526787 2443.492701,1334.239790 2445.138348,1333.493834 2443.404085,1329.686939 2445.680645,1328.660031 2436.010108,1307.426302 2396.736900,1325.176670 2405.614859,1344.657688 2394.496300,1349.684499 2398.311745,1358.057424 2396.461548,1358.889711 2398.930900,1364.304227 2400.755526,1363.482731 2407.428352,1378.129755 2414.206834,1375.070580 2415.602427,1378.140615 2441.036849,1366.649522 2440.376193,1365.198219 2450.701819,1360.528164 2452.526452,1359.706681 2453.880725,1362.687404 2474.745190,1353.250029 2463.026604,1327.528316"/>
    <poly id="109677174" type="building" color="255,230,230" fill="1" layer="-1.00" shape="2451.888694,1293.820355 2440.291045,1299.185415 2453.206658,1326.886724 2464.804275,1321.521684 2451.888694,1293.820355"/>
    <poly id="109677177" type="parking" color="184,184,179" fill="1" layer="-1.00" shape="2412.765958,1416.740560 2426.319324,1446.370233 2438.563515,1440.813210 2464.720325,1497.973944 2483.649344,1489.378935 2486.168236,1494.894006 2505.446922,1486.136790 2508.461340,1492.734801 2565.939251,1466.647826 2519.094095,1364.271497 2511.113083,1367.893197 2507.041175,1359.006394 2418.022449,1399.419120 2423.680009,1411.788997 2412.765958,1416.740560"/>
    <poly id="109719574" type="amenity" color="237,199,199" fill="1" layer="-1.00" shape="2107.637898,1324.333167 2113.474473,1336.671662 2143.596171,1322.516582 2142.843947,1320.919870 2145.419499,1319.707775 2141.285763,1310.986961 2139.656965,1311.744289 2138.706254,1309.734395 2107.637898,1324.333167"/>
    <poly id="109719574#1" type="building" color="255,230,230" fill="1" layer="-1.00" shape="2107.637898,1324.333167 2113.474473,1336.671662 2143.596171,1322.516582 2142.843947,1320.919870 2145.419499,1319.707775 2141.285763,1310.986961 2139.656965,1311.744289 2138.706254,1309.734395 2107.637898,1324.333167"/>
    <poly id="109719575" type="leisure" color="207,245,201" fill="1" layer="-2.00" shape="2077.130770,1389.063794 2048.043971,1401.821764 2062.708805,1435.005729 2091.803982,1422.247920 2077.130770,1389.063794"/>
    <poly id="109719575#1" type="sport" color="79,230,125" fill="1" layer="-2.00" shape="2077.130770,1389.063794 2048.043971,1401.821764 2062.708805,1435.005729 2091.803982,1422.247920 2077.130770,1389.063794"/>
    <poly id="109719576" type="leisure" color="207,245,201" fill="1" layer="-2.00" shape="2044.562760,1334.479999 2009.267834,1348.716989 2023.750691,1384.341068 2059.045481,1370.104147 2044.562760,1334.479999"/>
    <poly id="109719577" type="leisure" color="207,245,201" fill="1" layer="-2.00" shape="2049.629707,1417.872113 2036.307969,1424.204911 2048.034324,1448.693711 2061.364642,1442.349936 2049.629707,1417.872113"/>
    <poly id="109719577#1" type="sport" color="79,230,125" fill="1" layer="-2.00" shape="2049.629707,1417.872113 2036.307969,1424.204911 2048.034324,1448.693711 2061.364642,1442.349936 2049.629707,1417.872113"/>
    <poly id="109719578" type="amenity" color="237,199,199" fill="1" layer="-1.00" shape="1779.474741,1325.547805 1761.786553,1333.948668 1764.854705,1340.369378 1769.588083,1338.117504 1780.140841,1360.171438 1793.095612,1354.022475 1779.474741,1325.547805"/>
    <poly id="109719578#1" type="building" color="255,230,230" fill="1" layer="-1.00" shape="1779.474741,1325.547805 1761.786553,1333.948668 1764.854705,1340.369378 1769.588083,1338.117504 1780.140841,1360.171438 1793.095612,1354.022475 1779.474741,1325.547805"/>
    <poly id="109857330" type="building" color="255,230,230" fill="1" layer="-1.00" shape="1704.747999,1360.335723 1679.488638,1372.175560 1686.301050,1386.612655 1688.066374,1385.779168 1694.498698,1399.390136 1703.154405,1395.331668 1698.507989,1385.494723 1703.641672,1383.092226 1707.496244,1381.284856 1705.884095,1377.868184 1711.734119,1375.130203 1704.747999,1360.335723"/>
    <poly id="109857330#1" type="shop" color="237,199,255" fill="1" layer="-1.00" shape="1704.747999,1360.335723 1679.488638,1372.175560 1686.301050,1386.612655 1688.066374,1385.779168 1694.498698,1399.390136 1703.154405,1395.331668 1698.507989,1385.494723 1703.641672,1383.092226 1707.496244,1381.284856 1705.884095,1377.868184 1711.734119,1375.130203 1704.747999,1360.335723"/>
    <poly id="11651864" type="unknown" color="51,128,255" fill="0" layer="-1.00" shape="2012.623307,1822.407653 2008.288828,1812.774111 1992.279873,1777.209203 1983.049398,1756.691926 1963.213850,1712.232457 1962.479261,1710.580467 1939.716366,1659.280107 1925.017024,1626.140362 1912.884186,1598.804746 1898.070886,1565.252913 1857.806121,1474.051499 1806.575275,1363.344770"/>
    <poly id="11686159" type="unknown" color="51,128,255" fill="0" layer="-1.00" shape="1960.484103,843.501279 1998.171814,857.980225 2049.744149,877.801427 2086.409894,892.612575"/>
    <poly id="11826525" type="unknown" color="51,128,255" fill="0" layer="-1.00" shape="1806.575275,1363.344770 1786.607405,1317.729663 1775.722974,1293.651169 1754.729898,1247.235518 1747.379942,1230.971155 1735.190968,1202.558322 1730.061283,1190.606163 1718.985363,1166.203497 1677.274727,1074.286325 1665.545959,1048.443719"/>
    <poly id="125666300" type="parking" color="184,184,179" fill="1" layer="-1.00" shape="2106.089908,1121.672075 2109.514719,1120.359268 2111.168140,1121.067677 2112.647343,1124.249684 2139.477720,1112.352654 2137.635456,1108.344691 2138.224162,1106.653263 2143.252527,1104.571732 2130.531225,1075.407928 2088.323838,1058.242218 2079.060846,1061.982027 2106.089908,1121.672075"/>
    <poly id="125666763" type="building" color="255,230,230" fill="1" layer="-1.00" shape="2238.112348,937.610032 2241.094632,930.163669 2258.453871,937.069365 2271.275522,905.030036 2278.541663,907.916163 2275.358106,915.870747 2277.079658,916.557817 2267.371541,940.819326 2265.886181,940.235050 2264.967947,942.521958 2256.967566,939.349360 2254.982239,944.309932 2250.855476,942.672139 2238.112348,937.610032"/>
    <poly id="125666764" type="building" color="255,230,230" fill="1" layer="-1.00" shape="2063.627919,872.052752 2068.908732,858.972298 2081.205828,863.773348 2080.776614,864.900523 2086.210924,867.109198 2081.353635,879.528674 2063.627919,872.052752"/>
    <poly id="125666765" type="building" color="255,230,230" fill="1" layer="-1.00" shape="2142.615046,904.497378 2157.624609,867.533036 2228.924172,896.154894 2218.842044,920.500725 2222.875425,922.148466 2219.362314,930.709666 2176.970590,913.308096 2175.170112,917.715842 2142.615046,904.497378"/>
    <poly id="125666766" type="parking" color="184,184,179" fill="1" layer="-1.00" shape="2256.892874,933.642094 2221.474394,919.511381 2231.391248,895.507700 2156.627692,865.134017 2144.794823,893.999315 2136.019020,890.428858 2087.752358,870.758230 2090.796816,863.767744 2073.487865,856.885261 2082.090571,835.618692 2084.418079,829.707475 2151.468055,855.679117 2156.419100,844.626351 2275.360036,885.063101 2271.515805,895.740702 2256.892874,933.642094"/>
    <poly id="125667969" type="parking" color="184,184,179" fill="1" layer="-1.00" shape="2454.574398,1192.526289 2523.146220,1161.545128 2510.004128,1132.941690 2506.488687,1129.168550 2442.023978,1158.501376 2444.095340,1163.178327 2441.614436,1164.269356 2454.574398,1192.526289"/>
    <poly id="125708085" type="building" color="255,230,230" fill="1" layer="-1.00" shape="2512.231296,1075.527765 2523.209980,1099.364289 2527.614441,1096.997850 2537.380374,1117.366908 2531.963862,1119.976328 2539.442279,1136.009934 2544.395793,1133.816737 2551.009968,1149.095977 2688.020227,1087.822677 2685.522904,1081.930341 2676.385307,1085.793073 2669.240097,1069.574667 2695.527560,1057.095663 2682.130557,1026.490458 2645.289727,1042.792770 2637.796037,1025.937331 2625.964373,1030.977302 2620.992105,1018.737774 2547.669628,1051.125518 2545.260583,1047.021713 2510.632320,1062.718886 2515.090581,1074.008404 2512.231296,1075.527765"/>
    <poly id="125708085#1" type="shop" color="237,199,255" fill="1" layer="-1.00" shape="2512.231296,1075.527765 2523.209980,1099.364289 2527.614441,1096.997850 2537.380374,1117.366908 2531.963862,1119.976328 2539.442279,1136.009934 2544.395793,1133.816737 2551.009968,1149.095977 2688.020227,1087.822677 2685.522904,1081.930341 2676.385307,1085.793073 2669.240097,1069.574667 2695.527560,1057.095663 2682.130557,1026.490458 2645.289727,1042.792770 2637.796037,1025.937331 2625.964373,1030.977302 2620.992105,1018.737774 2547.669628,1051.125518 2545.260583,1047.021713 2510.632320,1062.718886 2515.090581,1074.008404 2512.231296,1075.527765"/>
    <poly id="126251313" type="building" color="255,230,230" fill="1" layer="-1.00" shape="2285.007428,1023.898349 2283.585433,1008.360627 2245.256404,1019.506601 2246.943608,1034.858810 2285.007428,1023.898349"/>
    <poly id="126251314" type="building" color="255,230,230" fill="1" layer="-1.00" shape="2249.413875,967.755905 2236.531754,962.969655 2219.642474,1004.562659 2229.719085,1008.537613 2234.401643,1007.007027 2243.417235,983.891644 2249.124049,969.273333 2249.413875,967.755905"/>
    <poly id="126251315" type="building" color="255,230,230" fill="1" layer="-1.00" shape="2283.585433,1008.360627 2245.256404,1019.506601 2244.742503,1012.261932 2258.013972,1009.437060 2258.163681,1008.284288 2244.561744,1009.695201 2244.085339,1003.550073 2260.424804,1002.261295 2259.902472,997.103672 2281.762495,995.804427 2283.585433,1008.360627"/>
    <poly id="126251316" type="building" color="255,230,230" fill="1" layer="-1.00" shape="2236.404573,962.968107 2225.157606,958.301692 2210.501845,952.228294 2193.427753,994.385300 2219.343021,1004.781053 2236.404573,962.968107"/>
    <poly id="126251317" type="building" color="255,230,230" fill="1" layer="-1.00" shape="2303.607987,1027.033536 2300.257970,992.255001 2302.613794,990.296455 2343.703017,1007.360936 2347.118945,1014.441139 2303.607987,1027.033536"/>
    <poly id="126251318" type="building" color="255,230,230" fill="1" layer="-1.00" shape="2280.823833,981.660324 2281.762495,995.804427 2277.008687,992.737944 2275.665308,995.119592 2273.143303,994.012008 2272.265069,995.799819 2266.943828,996.156911 2257.634181,992.568705 2257.983190,991.762517 2253.020581,989.825899 2253.692351,988.279815 2260.062275,973.525258 2280.823833,981.660324"/>
    <poly id="126251319" type="building" color="255,230,230" fill="1" layer="-1.00" shape="2249.124049,969.273333 2260.062275,973.525258 2253.692351,988.279815 2243.417235,983.891644 2249.124049,969.273333"/>
    <poly id="126251665" type="amenity" color="237,199,199" fill="1" layer="-1.00" shape="2638.479058,1258.652247 2646.712343,1276.027427 2610.312519,1293.123505 2602.831304,1277.345125 2626.088723,1266.416443 2625.336459,1264.830781 2638.479058,1258.652247"/>
    <poly id="126251665#1" type="building" color="255,230,230" fill="1" layer="-1.00" shape="2638.479058,1258.652247 2646.712343,1276.027427 2610.312519,1293.123505 2602.831304,1277.345125 2626.088723,1266.416443 2625.336459,1264.830781 2638.479058,1258.652247"/>
    <poly id="126256645" type="building" color="255,230,230" fill="1" layer="-1.00" shape="2242.351253,1035.946411 2238.081139,1021.006846 2219.931035,1026.148191 2224.201181,1041.087746 2242.351253,1035.946411"/>
    <poly id="126256646" type="building" color="255,230,230" fill="1" layer="-1.00" shape="2314.718325,976.066956 2324.847693,979.887255 2333.388804,958.853344 2335.924024,952.611674 2326.568443,949.311472 2314.718325,976.066956"/>
    <poly id="126256647" type="building" color="255,230,230" fill="1" layer="-1.00" shape="2332.195553,983.018674 2324.847693,979.887255 2333.388804,958.853344 2341.034652,961.888484 2332.195553,983.018674"/>
    <poly id="126256648" type="amenity" color="237,199,199" fill="1" layer="-1.00" shape="2148.676554,1018.331811 2153.946517,1005.451114 2171.438881,1012.558064 2166.168892,1025.438750 2148.676554,1018.331811"/>
    <poly id="126256648#1" type="building" color="255,230,230" fill="1" layer="-1.00" shape="2148.676554,1018.331811 2153.946517,1005.451114 2171.438881,1012.558064 2166.168892,1025.438750 2148.676554,1018.331811"/>
    <poly id="126256649" type="building" color="255,230,230" fill="1" layer="-1.00" shape="2297.908526,937.283260 2298.828201,961.341098 2300.168126,963.422362 2314.718325,976.066956 2326.568443,949.311472 2297.908526,937.283260"/>
    <poly id="126256650" type="building" color="255,230,230" fill="1" layer="-1.00" shape="2192.658495,1038.805593 2203.442682,1043.166584 2213.660298,1018.122964 2202.876079,1013.761960 2192.658495,1038.805593"/>
    <poly id="126256651" type="building" color="255,230,230" fill="1" layer="-1.00" shape="2224.527764,1014.247415 2219.489607,1026.187228 2223.859336,1041.305624 2208.337815,1045.768460 2203.689613,1043.780190 2216.941277,1011.213116 2224.527764,1014.247415"/>
    <poly id="126256653" type="building" color="255,230,230" fill="1" layer="-1.00" shape="2203.213419,1011.823238 2192.270235,1038.656547 2169.132362,1029.293826 2180.075474,1002.460484 2203.213419,1011.823238"/>
    <poly id="126258076" type="building" color="255,230,230" fill="1" layer="-1.00" shape="2347.469405,984.981052 2354.456050,987.830545 2364.696932,963.708855 2357.003967,961.061682 2347.469405,984.981052"/>
    <poly id="126258077" type="building" color="255,230,230" fill="1" layer="-1.00" shape="2338.713080,985.396159 2332.195553,983.018674 2343.630986,955.503236 2350.413631,958.394646 2338.713080,985.396159"/>
    <poly id="126258078" type="building" color="255,230,230" fill="1" layer="-1.00" shape="2358.515357,993.608572 2364.111131,995.775014 2376.365715,968.547152 2370.981755,966.394385 2358.515357,993.608572"/>
    <poly id="126258079" type="building" color="255,230,230" fill="1" layer="-1.00" shape="2378.371710,1001.555253 2364.111131,995.775014 2376.365715,968.547152 2390.168490,974.321833 2378.371710,1001.555253"/>
    <poly id="126258080" type="amenity" color="237,199,199" fill="1" layer="-1.00" shape="2352.898971,991.741634 2358.515357,993.608572 2370.981755,966.394385 2364.696932,963.708855 2352.898971,991.741634"/>
    <poly id="126258080#1" type="building" color="255,230,230" fill="1" layer="-1.00" shape="2352.898971,991.741634 2358.515357,993.608572 2370.981755,966.394385 2364.696932,963.708855 2352.898971,991.741634"/>
    <poly id="126258081" type="building" color="255,230,230" fill="1" layer="-1.00" shape="2338.713080,985.396159 2338.697840,985.951066 2345.982322,988.715365 2347.469405,984.981052 2357.003967,961.061682 2350.413631,958.394646 2338.713080,985.396159"/>
    <poly id="126261440" type="building" color="255,230,230" fill="1" layer="-1.00" shape="2446.497018,1092.111218 2464.668440,1132.488368 2457.208057,1135.816732 2439.027990,1095.450597 2446.497018,1092.111218"/>
    <poly id="126261442" type="building" color="255,230,230" fill="1" layer="-1.00" shape="2430.621187,1099.200418 2448.801153,1139.577632 2442.142229,1142.549425 2423.962235,1102.172227 2430.621187,1099.200418"/>
    <poly id="126261446" type="building" color="255,230,230" fill="1" layer="-1.00" shape="2439.027990,1095.450597 2457.208057,1135.816732 2448.801153,1139.577632 2430.621187,1099.200418 2439.027990,1095.450597"/>
    <poly id="126261447" type="building" color="255,230,230" fill="1" layer="-1.00" shape="2455.671238,1088.015516 2473.851101,1128.392793 2464.668440,1132.488368 2446.497018,1092.111218 2455.671238,1088.015516"/>
    <poly id="126261449" type="building" color="255,230,230" fill="1" layer="-1.00" shape="2313.800795,1118.237396 2310.872184,1087.160903 2313.694668,1085.874157 2357.089606,1066.075300 2369.448634,1094.280337 2313.800795,1118.237396"/>
    <poly id="126261455" type="building" color="255,230,230" fill="1" layer="-1.00" shape="2463.012426,1084.730103 2481.192258,1125.107398 2473.851101,1128.392793 2455.671238,1088.015516 2463.012426,1084.730103"/>
    <poly id="126261456" type="building" color="255,230,230" fill="1" layer="-1.00" shape="2470.191445,1081.531534 2488.362769,1121.908743 2481.192258,1125.107398 2463.012426,1084.730103 2470.191445,1081.531534"/>
    <poly id="126261461" type="amenity" color="237,199,199" fill="1" layer="-1.00" shape="2480.601989,1076.884751 2498.773405,1117.250885 2493.802531,1119.477205 2475.622751,1079.099880 2480.601989,1076.884751"/>
    <poly id="126261461#1" type="building" color="255,230,230" fill="1" layer="-1.00" shape="2480.601989,1076.884751 2498.773405,1117.250885 2493.802531,1119.477205 2475.622751,1079.099880 2480.601989,1076.884751"/>
    <poly id="126261462" type="amenity" color="237,199,199" fill="1" layer="-1.00" shape="2423.962235,1102.172227 2442.142229,1142.549425 2432.533243,1146.839673 2414.361688,1106.462602 2423.962235,1102.172227"/>
    <poly id="126261462#1" type="building" color="255,230,230" fill="1" layer="-1.00" shape="2423.962235,1102.172227 2442.142229,1142.549425 2432.533243,1146.839673 2414.361688,1106.462602 2423.962235,1102.172227"/>
    <poly id="126261463" type="building" color="255,230,230" fill="1" layer="-1.00" shape="2475.622751,1079.099880 2493.802531,1119.477205 2488.362769,1121.908743 2470.191445,1081.531534 2475.622751,1079.099880"/>
    <poly id="126263259" type="parking" color="184,184,179" fill="1" layer="-1.00" shape="2559.946185,1138.103229 2533.845192,1078.400562 2621.056011,1039.876535 2617.271226,1031.082001 2626.471462,1026.953517 2623.418480,1013.094365 2637.003621,1006.821309 2639.662850,1011.960677 2641.270815,1006.673633 2683.473114,1015.171854 2738.779924,1024.796519 2735.692669,1040.090446 2716.717603,1048.173603 2667.015800,1069.092293 2674.912610,1086.951864 2559.946185,1138.103229"/>
    <poly id="126268561" type="parking" color="184,184,179" fill="1" layer="-1.00" shape="2839.976244,877.558822 2847.715829,877.087434 2851.744373,873.584182 2832.275631,851.308455 2829.052840,847.183489 2830.059382,841.855810 2832.883572,836.983367 2838.457229,834.031923 2844.484319,834.216769 2847.793383,836.144626 2865.064837,855.729017 2869.280342,852.194759 2874.760148,850.674336 2846.608948,818.611340 2841.550952,823.078951 2838.796469,816.028819 2821.548469,831.215885 2824.549699,836.814685 2814.666904,845.408637 2839.976244,877.558822"/>
    <poly id="126268566" type="building" color="255,230,230" fill="1" layer="-1.00" shape="2777.130528,864.399569 2751.366778,885.988259 2791.305805,933.249361 2808.724364,918.652720 2802.806095,911.663777 2811.159864,904.660862 2777.130528,864.399569"/>
    <poly id="126268568" type="parking" color="184,184,179" fill="1" layer="-1.00" shape="2814.844570,960.393048 2803.187565,946.994650 2803.663168,944.857809 2806.546810,942.051036 2799.588206,934.150103 2809.230986,927.140765 2805.979926,923.248601 2822.862115,909.522473 2786.775157,866.249528 2791.485650,862.454842 2787.677479,857.656614 2801.698577,845.593999 2804.952529,849.253056 2811.837459,843.786419 2846.942892,886.880932 2879.785588,858.551648 2908.313410,890.996860 2864.209950,930.345435 2858.133230,923.143568 2814.844570,960.393048"/>
    <poly id="126268573" type="parking" color="184,184,179" fill="1" layer="-1.00" shape="2857.752262,809.577695 2862.003608,805.888445 2856.618151,799.705326 2918.172401,746.004929 2919.621126,744.734871 2961.268655,791.651460 2958.769235,847.474418 2919.889304,880.569771 2857.752262,809.577695"/>
    <poly id="126268579" type="parking" color="184,184,179" fill="1" layer="-1.00" shape="2709.127727,928.968652 2683.144753,951.876009 2703.793064,974.787480 2709.183099,970.890038 2711.917275,973.365897 2716.632817,975.388615 2734.101068,978.888485 2749.903999,979.881195 2761.382753,980.132695 2782.652816,979.937876 2802.339902,978.824481 2823.866632,976.368137 2836.394834,974.711979 2851.672757,971.490856 2865.817136,968.044939 2877.794023,965.016562 2890.574719,961.442961 2858.053568,924.108457 2814.725919,961.079912 2816.071684,962.672860 2811.820447,966.362135 2808.009626,961.785899 2801.572815,967.369043 2800.108482,965.763544 2797.156406,965.849519 2794.397186,968.191540 2790.021138,963.375253 2783.815984,968.739211 2743.003645,967.218319 2709.127727,928.968652"/>
    <poly id="127674659" type="building" color="255,230,230" fill="1" layer="-1.00" shape="2624.199695,852.715073 2623.877024,850.668385 2621.603346,850.751619 2617.965881,822.952479 2616.952423,823.306457 2616.207900,817.613199 2613.133132,818.019703 2611.986293,809.856913 2615.630639,809.335247 2614.168177,798.548558 2641.962181,794.702811 2628.761850,777.089333 2636.125328,771.317532 2702.189513,854.911953 2695.823783,860.229612 2700.255776,865.335172 2669.686197,891.605862 2643.086870,860.872646 2624.199695,852.715073"/>
    <poly id="127674661" type="parking" color="184,184,179" fill="1" layer="-1.00" shape="2717.007023,889.342502 2662.318237,934.513361 2656.834328,937.765780 2650.555127,938.788106 2645.666982,938.395297 2642.843303,936.995251 2584.258785,900.597961 2586.949373,896.234484 2581.286286,892.634912 2588.953392,880.738542 2592.174498,878.069033 2599.621960,872.353735 2610.267022,866.588698 2608.215601,857.504502 2599.295650,861.580928 2560.065316,872.125913 2559.294594,868.575003 2557.733806,867.223719 2553.733790,867.707763 2548.627783,830.287610 2553.630354,829.649276 2554.568101,828.550540 2553.926993,824.801380 2569.068410,822.355140 2567.291538,809.532979 2578.453496,807.970717 2573.702109,769.988684 2581.434855,768.695396 2579.670128,764.599454 2614.513507,751.547438 2616.057767,755.640695 2618.554843,756.015365 2621.421594,753.896631 2632.738922,768.078806 2628.029811,771.762588 2625.425985,778.736052 2632.444000,788.047476 2611.875943,791.126701 2614.142224,808.306790 2610.795723,808.743281 2612.387269,819.376120 2615.504430,818.970134 2621.626286,859.977559 2660.128698,882.629713 2669.869665,893.939500 2687.350270,879.110201 2695.749606,888.482991 2707.059505,878.285468 2717.007023,889.342502"/>
    <poly id="132684577" type="building" color="255,230,230" fill="1" layer="-1.00" shape="1758.892081,1404.232739 1775.220331,1440.200605 1785.613373,1435.519362 1792.559162,1450.824122 1766.529790,1462.543318 1743.255653,1411.270751 1758.892081,1404.232739"/>
    <poly id="132684577#1" type="shop" color="237,199,255" fill="1" layer="-1.00" shape="1758.892081,1404.232739 1775.220331,1440.200605 1785.613373,1435.519362 1792.559162,1450.824122 1766.529790,1462.543318 1743.255653,1411.270751 1758.892081,1404.232739"/>
    <poly id="132684578" type="building" color="255,230,230" fill="1" layer="-1.00" shape="1725.781945,1451.714226 1711.614359,1457.904134 1706.126447,1445.436963 1696.957860,1424.609980 1700.316512,1423.140765 1711.125495,1418.420045 1725.781945,1451.714226"/>
    <poly id="167015171" type="building" color="255,230,230" fill="1" layer="-1.00" shape="2075.555802,1034.995240 2083.447441,1015.007851 2062.427256,1006.514934 2056.796753,1020.468193 2063.615243,1023.204351 2061.184714,1029.225342 2075.555802,1034.995240"/>
    <poly id="167278398" type="amenity" color="237,199,199" fill="1" layer="-1.00" shape="1962.740124,713.459403 1971.006236,703.845572 1950.561253,687.000292 1946.470019,699.895419 1962.740124,713.459403"/>
    <poly id="167278398#1" type="building" color="255,230,230" fill="1" layer="-1.00" shape="1962.740124,713.459403 1971.006236,703.845572 1950.561253,687.000292 1946.470019,699.895419 1962.740124,713.459403"/>
    <poly id="167278400" type="building" color="255,230,230" fill="1" layer="-1.00" shape="1956.366600,720.853628 1943.754022,708.477508 1937.531282,706.237176 1932.634311,719.144742 1951.076648,727.006493 1956.366600,720.853628"/>
    <poly id="167278400#1" type="shop" color="237,199,255" fill="1" layer="-1.00" shape="1956.366600,720.853628 1943.754022,708.477508 1937.531282,706.237176 1932.634311,719.144742 1951.076648,727.006493 1956.366600,720.853628"/>
    <poly id="167278404" type="building" color="255,230,230" fill="1" layer="-1.00" shape="1962.740124,713.459403 1946.470019,699.895419 1943.754022,708.477508 1956.366600,720.853628 1962.740124,713.459403"/>
    <poly id="167278404#1" type="shop" color="237,199,255" fill="1" layer="-1.00" shape="1962.740124,713.459403 1946.470019,699.895419 1943.754022,708.477508 1956.366600,720.853628 1962.740124,713.459403"/>
    <poly id="167278405" type="building" color="255,230,230" fill="1" layer="-1.00" shape="1937.531282,706.237176 1932.634311,719.144742 1920.612249,714.014226 1925.457520,701.872053 1937.531282,706.237176"/>
    <poly id="167278405#1" type="shop" color="237,199,255" fill="1" layer="-1.00" shape="1937.531282,706.237176 1932.634311,719.144742 1920.612249,714.014226 1925.457520,701.872053 1937.531282,706.237176"/>
    <poly id="167704094" type="amenity" color="237,199,199" fill="1" layer="-1.00" shape="1673.663769,1050.329289 1737.039534,1189.946795 1769.566766,1175.297546 1706.191464,1035.679759 1673.663769,1050.329289"/>
    <poly id="167704096" type="building" color="255,230,230" fill="1" layer="-1.00" shape="1765.183289,1312.529919 1748.934620,1319.693733 1751.270678,1324.950983 1753.606486,1323.924584 1755.240969,1327.596879 1769.153816,1321.459472 1765.183289,1312.529919"/>
    <poly id="167704097" type="building" color="255,230,230" fill="1" layer="-1.00" shape="1760.741965,1301.163364 1744.870082,1308.020898 1747.468986,1313.980744 1749.088591,1313.278729 1750.144785,1315.689514 1764.388571,1309.533900 1760.741965,1301.163364"/>