<?xml version="1.0" encoding="UTF-8"?>

<!-- generated on 2022-06-08 08:28:45 by Eclipse SUMO netedit Version 1.12.0
<configuration xmlns:xsi="http://www.w3.org/2001/XMLSchema-instance" xsi:noNamespaceSchemaLocation="http://sumo.dlr.de/xsd/netconvertConfiguration.xsd">

    <input>
        <sumo-net-file value="/Users/raynahata/Desktop/sumoFiles/sumoTrial/map2.net.xml"/>
    </input>

    <output>
        <output-file value="/Users/raynahata/Desktop/sumoFiles/sumoTrial/map2.net.xml"/>
    </output>

    <processing>
        <geometry.min-radius.fix.railways value="false"/>
        <geometry.max-grade.fix value="false"/>
        <offset.disable-normalization value="true"/>
        <lefthand value="false"/>
    </processing>

    <junctions>
        <no-internal-links value="false"/>
        <no-turnarounds value="true"/>
        <junctions.corner-detail value="5"/>
        <junctions.limit-turn-speed value="5.5"/>
        <rectangular-lane-cut value="false"/>
    </junctions>

    <pedestrian>
        <walkingareas value="true"/>
    </pedestrian>

    <report>
        <aggregate-warnings value="5"/>
    </report>

</configuration>
-->

<net version="1.9" junctionCornerDetail="5" walkingareas="true" limitTurnSpeed="5.50" xmlns:xsi="http://www.w3.org/2001/XMLSchema-instance" xsi:noNamespaceSchemaLocation="http://sumo.dlr.de/xsd/net_file.xsd">

    <location netOffset="-588850.83,-4478388.67" convBoundary="1530.51,212.45,3896.63,1635.02" origBoundary="-79.952082,40.451192,-79.906047,40.475737" projParameter="+proj=utm +zone=17 +ellps=WGS84 +datum=WGS84 +units=m +no_defs"/>

    <type id="highway.bridleway" priority="1" numLanes="1" speed="2.78" allow="pedestrian" oneway="1" width="2.00"/>
    <type id="highway.bus_guideway" priority="1" numLanes="1" speed="27.78" allow="bus" oneway="1"/>
    <type id="highway.cycleway" priority="1" numLanes="1" speed="8.33" allow="bicycle" oneway="0" width="1.00"/>
    <type id="highway.footway" priority="1" numLanes="1" speed="2.78" allow="pedestrian" oneway="1" width="2.00"/>
    <type id="highway.ford" priority="1" numLanes="1" speed="2.78" allow="army" oneway="0"/>
    <type id="highway.living_street" priority="2" numLanes="1" speed="2.78" disallow="tram rail_urban rail rail_electric rail_fast ship" oneway="0"/>
    <type id="highway.motorway" priority="14" numLanes="2" speed="39.44" allow="private emergency authority army vip passenger hov taxi bus coach delivery truck trailer motorcycle evehicle custom1 custom2" oneway="1"/>
    <type id="highway.motorway_link" priority="9" numLanes="1" speed="22.22" allow="private emergency authority army vip passenger hov taxi bus coach delivery truck trailer motorcycle evehicle custom1 custom2" oneway="1"/>
    <type id="highway.path" priority="1" numLanes="1" speed="2.78" allow="pedestrian bicycle" oneway="0" width="2.00"/>
    <type id="highway.pedestrian" priority="1" numLanes="1" speed="2.78" allow="pedestrian" oneway="1" width="2.00"/>
    <type id="highway.primary" priority="12" numLanes="2" speed="27.78" disallow="tram rail_urban rail rail_electric rail_fast ship" oneway="0"/>
    <type id="highway.primary_link" priority="7" numLanes="1" speed="22.22" disallow="tram rail_urban rail rail_electric rail_fast ship" oneway="0"/>
    <type id="highway.raceway" priority="15" numLanes="2" speed="83.33" allow="vip" oneway="0"/>
    <type id="highway.residential" priority="3" numLanes="1" speed="13.89" disallow="tram rail_urban rail rail_electric rail_fast ship" oneway="0"/>
    <type id="highway.secondary" priority="11" numLanes="1" speed="27.78" disallow="tram rail_urban rail rail_electric rail_fast ship" oneway="0"/>
    <type id="highway.secondary_link" priority="6" numLanes="1" speed="22.22" disallow="tram rail_urban rail rail_electric rail_fast ship" oneway="0"/>
    <type id="highway.service" priority="1" numLanes="1" speed="5.56" allow="pedestrian delivery bicycle" oneway="0"/>
    <type id="highway.stairs" priority="1" numLanes="1" speed="1.39" allow="pedestrian" oneway="1" width="2.00"/>
    <type id="highway.step" priority="1" numLanes="1" speed="1.39" allow="pedestrian" oneway="1" width="2.00"/>
    <type id="highway.steps" priority="1" numLanes="1" speed="1.39" allow="pedestrian" oneway="1" width="2.00"/>
    <type id="highway.tertiary" priority="10" numLanes="1" speed="22.22" disallow="tram rail_urban rail rail_electric rail_fast ship" oneway="0"/>
    <type id="highway.tertiary_link" priority="5" numLanes="1" speed="22.22" disallow="tram rail_urban rail rail_electric rail_fast ship" oneway="0"/>
    <type id="highway.track" priority="1" numLanes="1" speed="5.56" allow="pedestrian motorcycle moped bicycle" oneway="0"/>
    <type id="highway.trunk" priority="13" numLanes="2" speed="27.78" disallow="pedestrian bicycle tram rail_urban rail rail_electric rail_fast ship" oneway="0"/>
    <type id="highway.trunk_link" priority="8" numLanes="1" speed="22.22" disallow="pedestrian bicycle tram rail_urban rail rail_electric rail_fast ship" oneway="0"/>
    <type id="highway.unclassified" priority="4" numLanes="1" speed="13.89" disallow="tram rail_urban rail rail_electric rail_fast ship" oneway="0"/>
    <type id="highway.unsurfaced" priority="1" numLanes="1" speed="8.33" disallow="tram rail_urban rail rail_electric rail_fast ship" oneway="0"/>
    <type id="railway.highspeed" priority="21" numLanes="1" speed="69.44" allow="rail_fast" oneway="1"/>
    <type id="railway.light_rail" priority="19" numLanes="1" speed="27.78" allow="rail_urban" oneway="1"/>
    <type id="railway.preserved" priority="16" numLanes="1" speed="27.78" allow="rail" oneway="1"/>
    <type id="railway.rail" priority="20" numLanes="1" speed="44.44" allow="rail" oneway="1"/>
    <type id="railway.subway" priority="18" numLanes="1" speed="27.78" allow="rail_urban" oneway="1"/>
    <type id="railway.tram" priority="17" numLanes="1" speed="13.89" allow="tram" oneway="1"/>

    <edge id=":104353180_0" function="internal">
        <lane id=":104353180_0_0" index="0" disallow="tram rail_urban rail rail_electric rail_fast ship" speed="11.18" length="0.30" shape="3054.70,930.15 3054.58,929.87"/>
    </edge>
    <edge id=":104353180_1" function="internal">
        <lane id=":104353180_1_0" index="0" disallow="tram rail_urban rail rail_electric rail_fast ship" speed="11.18" length="0.20" shape="3057.54,928.65 3057.62,928.84"/>
    </edge>
    <edge id=":104353180_w0" function="walkingarea">
        <lane id=":104353180_w0_0" index="0" allow="pedestrian" speed="1.00" length="2.22" width="3.20" shape="3053.24,930.80 3056.16,929.49 3056.16,929.49 3059.08,928.18 3059.02,928.05 3056.06,929.26 3056.06,929.26 3053.10,930.48"/>
    </edge>
    <edge id=":104452096_0" function="internal">
        <lane id=":104452096_0_0" index="0" disallow="tram rail_urban rail rail_electric rail_fast ship" speed="3.65" length="4.67" shape="2869.29,1150.57 2868.20,1149.64 2867.89,1148.79 2868.38,1148.05 2869.67,1147.39"/>
    </edge>
    <edge id=":104523012_0" function="internal">
        <lane id=":104523012_0_0" index="0" disallow="tram rail_urban rail rail_electric rail_fast ship" speed="27.78" length="11.25" shape="2515.58,1123.48 2510.77,1113.30"/>
    </edge>
    <edge id=":104523012_1" function="internal">
        <lane id=":104523012_1_0" index="0" allow="pedestrian delivery bicycle" speed="7.07" length="3.59" shape="2515.58,1123.48 2514.64,1120.45 2514.67,1120.03"/>
    </edge>
    <edge id=":104523012_2" function="internal">
        <lane id=":104523012_2_0" index="0" disallow="tram rail_urban rail rail_electric rail_fast ship" speed="3.65" length="1.44" shape="2515.58,1123.48 2515.81,1122.06"/>
    </edge>
    <edge id=":104523012_12" function="internal">
        <lane id=":104523012_12_0" index="0" allow="pedestrian delivery bicycle" speed="7.07" length="7.30" shape="2514.67,1120.03 2514.80,1117.92 2516.05,1115.88 2518.39,1114.35"/>
    </edge>
    <edge id=":104523012_13" function="internal">
        <lane id=":104523012_13_0" index="0" disallow="tram rail_urban rail rail_electric rail_fast ship" speed="3.65" length="3.23" shape="2515.81,1122.06 2516.38,1121.36 2517.27,1121.40 2518.49,1122.16"/>
    </edge>
    <edge id=":104523012_3" function="internal">
        <lane id=":104523012_3_0" index="0" allow="pedestrian delivery bicycle" speed="5.33" length="5.72" shape="2519.69,1117.27 2518.55,1118.05 2517.98,1119.13 2517.95,1120.50 2518.49,1122.16"/>
    </edge>
    <edge id=":104523012_4" function="internal">
        <lane id=":104523012_4_0" index="0" allow="pedestrian delivery bicycle" speed="7.22" length="11.03" shape="2519.69,1117.27 2517.00,1117.98 2514.61,1117.55 2512.54,1115.99 2510.77,1113.30"/>
    </edge>
    <edge id=":104523012_5" function="internal">
        <lane id=":104523012_5_0" index="0" allow="pedestrian delivery bicycle" speed="3.65" length="1.44" shape="2519.69,1117.27 2518.27,1117.03"/>
    </edge>
    <edge id=":104523012_14" function="internal">
        <lane id=":104523012_14_0" index="0" allow="pedestrian delivery bicycle" speed="3.65" length="3.23" shape="2518.27,1117.03 2517.58,1116.46 2517.62,1115.57 2518.39,1114.35"/>
    </edge>
    <edge id=":104523012_6" function="internal">
        <lane id=":104523012_6_0" index="0" allow="pedestrian delivery bicycle" speed="5.51" length="6.01" shape="2513.64,1111.88 2514.63,1113.45 2515.76,1114.38 2517.01,1114.68 2518.39,1114.35"/>
    </edge>
    <edge id=":104523012_7" function="internal">
        <lane id=":104523012_7_0" index="0" disallow="tram rail_urban rail rail_electric rail_fast ship" speed="27.78" length="11.36" shape="2513.64,1111.88 2518.49,1122.16"/>
    </edge>
    <edge id=":104523012_8" function="internal">
        <lane id=":104523012_8_0" index="0" disallow="tram rail_urban rail rail_electric rail_fast ship" speed="3.65" length="1.44" shape="2513.64,1111.88 2513.46,1113.31"/>
    </edge>
    <edge id=":104523012_15" function="internal">
        <lane id=":104523012_15_0" index="0" disallow="tram rail_urban rail rail_electric rail_fast ship" speed="3.65" length="3.23" shape="2513.46,1113.31 2512.92,1114.03 2512.02,1114.02 2510.77,1113.30"/>
    </edge>
    <edge id=":104523012_9" function="internal">
        <lane id=":104523012_9_0" index="0" disallow="tram rail_urban rail rail_electric rail_fast ship" speed="6.42" length="9.04" shape="2508.10,1120.68 2510.21,1119.36 2511.36,1117.68 2511.55,1115.67 2510.77,1113.30"/>
    </edge>
    <edge id=":104523012_10" function="internal">
        <lane id=":104523012_10_0" index="0" allow="pedestrian delivery bicycle" speed="9.72" length="12.10" shape="2508.10,1120.68 2510.99,1119.12 2513.25,1117.52 2515.50,1115.91 2518.39,1114.35"/>
    </edge>
    <edge id=":104523012_11" function="internal">
        <lane id=":104523012_11_0" index="0" disallow="tram rail_urban rail rail_electric rail_fast ship" speed="7.36" length="11.78" shape="2508.10,1120.68 2511.79,1119.42 2514.75,1119.25 2516.98,1120.16 2518.49,1122.16"/>
    </edge>
    <edge id=":104523012_w0" function="walkingarea">
        <lane id=":104523012_w0_0" index="0" allow="pedestrian" speed="1.00" length="8.45" width="3.20" shape="2514.12,1124.14 2517.03,1122.82 2517.03,1122.82 2519.95,1121.51 2520.35,1118.73 2519.04,1115.81 2519.04,1115.81 2517.73,1112.89 2515.08,1111.18 2512.21,1112.59 2512.21,1112.59 2509.34,1114.01 2507.45,1119.22 2508.75,1122.14 2513.51,1123.07 2512.79,1122.29 2511.95,1121.81 2511.00,1121.63 2509.93,1121.74"/>
    </edge>
    <edge id=":104523020_0" function="internal">
        <lane id=":104523020_0_0" index="0" disallow="tram rail_urban rail rail_electric rail_fast ship" speed="6.57" length="9.14" shape="2539.07,1175.23 2537.68,1173.13 2535.96,1171.96 2533.91,1171.72 2531.54,1172.43"/>
    </edge>
    <edge id=":104523020_1" function="internal">
        <lane id=":104523020_1_0" index="0" disallow="tram rail_urban rail rail_electric rail_fast ship" speed="27.78" length="14.50" shape="2539.07,1175.23 2532.97,1162.08"/>
    </edge>
    <edge id=":104523020_2" function="internal">
        <lane id=":104523020_2_0" index="0" disallow="tram rail_urban rail rail_electric rail_fast ship" speed="7.96" length="4.17" shape="2539.07,1175.23 2537.90,1171.48 2537.92,1171.25"/>
    </edge>
    <edge id=":104523020_3" function="internal">
        <lane id=":104523020_3_0" index="0" disallow="tram rail_urban rail rail_electric rail_fast ship" speed="3.65" length="1.44" shape="2539.07,1175.23 2539.27,1173.81"/>
    </edge>
    <edge id=":104523020_16" function="internal">
        <lane id=":104523020_16_0" index="0" disallow="tram rail_urban rail rail_electric rail_fast ship" speed="7.96" length="10.13" shape="2537.92,1171.25 2538.23,1168.28 2540.06,1165.64 2543.38,1163.55"/>
    </edge>
    <edge id=":104523020_17" function="internal">
        <lane id=":104523020_17_0" index="0" disallow="tram rail_urban rail rail_electric rail_fast ship" speed="3.65" length="3.23" shape="2539.27,1173.81 2539.82,1173.10 2540.72,1173.12 2541.95,1173.86"/>
    </edge>
    <edge id=":104523020_4" function="internal">
        <lane id=":104523020_4_0" index="0" disallow="tram rail_urban rail rail_electric rail_fast ship" speed="6.45" length="9.03" shape="2544.68,1166.47 2542.58,1167.79 2541.42,1169.46 2541.22,1171.49 2541.95,1173.86"/>
    </edge>
    <edge id=":104523020_5" function="internal">
        <lane id=":104523020_5_0" index="0" disallow="tram rail_urban rail rail_electric rail_fast ship" speed="20.84" length="14.43" shape="2544.68,1166.47 2531.54,1172.43"/>
    </edge>
    <edge id=":104523020_6" function="internal">
        <lane id=":104523020_6_0" index="0" disallow="tram rail_urban rail rail_electric rail_fast ship" speed="8.03" length="4.06" shape="2544.68,1166.47 2540.91,1167.55 2540.78,1167.53"/>
    </edge>
    <edge id=":104523020_7" function="internal">
        <lane id=":104523020_7_0" index="0" disallow="tram rail_urban rail rail_electric rail_fast ship" speed="3.65" length="1.44" shape="2544.68,1166.47 2543.26,1166.23"/>
    </edge>
    <edge id=":104523020_18" function="internal">
        <lane id=":104523020_18_0" index="0" disallow="tram rail_urban rail rail_electric rail_fast ship" speed="8.03" length="10.19" shape="2540.78,1167.53 2537.70,1167.18 2535.05,1165.35 2532.97,1162.08"/>
    </edge>
    <edge id=":104523020_19" function="internal">
        <lane id=":104523020_19_0" index="0" disallow="tram rail_urban rail rail_electric rail_fast ship" speed="3.65" length="3.23" shape="2543.26,1166.23 2542.57,1165.66 2542.61,1164.77 2543.38,1163.55"/>
    </edge>
    <edge id=":104523020_8" function="internal">
        <lane id=":104523020_8_0" index="0" disallow="tram rail_urban rail rail_electric rail_fast ship" speed="6.54" length="9.11" shape="2535.89,1160.76 2537.22,1162.85 2538.91,1164.01 2540.96,1164.24 2543.38,1163.55"/>
    </edge>
    <edge id=":104523020_9" function="internal">
        <lane id=":104523020_9_0" index="0" disallow="tram rail_urban rail rail_electric rail_fast ship" speed="27.78" length="14.43" shape="2535.89,1160.76 2541.95,1173.86"/>
    </edge>
    <edge id=":104523020_10" function="internal">
        <lane id=":104523020_10_0" index="0" disallow="tram rail_urban rail rail_electric rail_fast ship" speed="8.02" length="3.99" shape="2535.89,1160.76 2536.97,1164.49 2536.95,1164.60"/>
    </edge>
    <edge id=":104523020_11" function="internal">
        <lane id=":104523020_11_0" index="0" disallow="tram rail_urban rail rail_electric rail_fast ship" speed="3.65" length="1.44" shape="2535.89,1160.76 2535.65,1162.18"/>
    </edge>
    <edge id=":104523020_20" function="internal">
        <lane id=":104523020_20_0" index="0" disallow="tram rail_urban rail rail_electric rail_fast ship" speed="8.02" length="10.18" shape="2536.95,1164.60 2536.60,1167.68 2534.79,1170.32 2531.54,1172.43"/>
    </edge>
    <edge id=":104523020_21" function="internal">
        <lane id=":104523020_21_0" index="0" disallow="tram rail_urban rail rail_electric rail_fast ship" speed="3.65" length="3.23" shape="2535.65,1162.18 2535.09,1162.88 2534.19,1162.84 2532.97,1162.08"/>
    </edge>
    <edge id=":104523020_12" function="internal">
        <lane id=":104523020_12_0" index="0" disallow="tram rail_urban rail rail_electric rail_fast ship" speed="6.53" length="9.04" shape="2530.20,1169.52 2532.27,1168.18 2533.43,1166.49 2533.66,1164.46 2532.97,1162.08"/>
    </edge>
    <edge id=":104523020_13" function="internal">
        <lane id=":104523020_13_0" index="0" disallow="tram rail_urban rail rail_electric rail_fast ship" speed="20.84" length="14.48" shape="2530.20,1169.52 2543.38,1163.55"/>
    </edge>
    <edge id=":104523020_14" function="internal">
        <lane id=":104523020_14_0" index="0" disallow="tram rail_urban rail rail_electric rail_fast ship" speed="8.05" length="4.09" shape="2530.20,1169.52 2533.91,1168.42 2534.13,1168.44"/>
    </edge>
    <edge id=":104523020_15" function="internal">
        <lane id=":104523020_15_0" index="0" disallow="tram rail_urban rail rail_electric rail_fast ship" speed="3.65" length="1.44" shape="2530.20,1169.52 2531.62,1169.74"/>
    </edge>
    <edge id=":104523020_22" function="internal">
        <lane id=":104523020_22_0" index="0" disallow="tram rail_urban rail rail_electric rail_fast ship" speed="8.05" length="10.16" shape="2534.13,1168.44 2537.11,1168.77 2539.79,1170.59 2541.95,1173.86"/>
    </edge>
    <edge id=":104523020_23" function="internal">
        <lane id=":104523020_23_0" index="0" disallow="tram rail_urban rail rail_electric rail_fast ship" speed="3.65" length="3.23" shape="2531.62,1169.74 2532.32,1170.30 2532.29,1171.20 2531.54,1172.43"/>
    </edge>
    <edge id=":104523020_w0" function="walkingarea">
        <lane id=":104523020_w0_0" index="0" allow="pedestrian" speed="1.00" length="10.55" width="3.20" shape="2537.62,1175.92 2540.51,1174.55 2540.51,1174.55 2543.40,1173.17 2545.33,1167.93 2544.03,1165.01 2544.03,1165.01 2542.73,1162.08 2537.35,1160.10 2534.43,1161.42 2534.43,1161.42 2531.51,1162.73 2529.53,1168.07 2530.87,1170.97 2530.87,1170.97 2532.21,1173.88 2536.98,1174.83 2536.23,1174.04 2535.38,1173.55 2534.43,1173.36 2533.37,1173.47"/>
    </edge>
    <edge id=":104523025_0" function="internal">
        <lane id=":104523025_0_0" index="0" disallow="tram rail_urban rail rail_electric rail_fast ship" speed="6.53" length="8.94" shape="2570.09,1240.38 2568.74,1238.36 2567.06,1237.25 2565.03,1237.03 2562.68,1237.72"/>
    </edge>
    <edge id=":104523025_1" function="internal">
        <lane id=":104523025_1_0" index="0" disallow="tram rail_urban rail rail_electric rail_fast ship" speed="27.78" length="11.41" shape="2570.09,1240.38 2565.18,1230.08"/>
    </edge>
    <edge id=":104523025_2" function="internal">
        <lane id=":104523025_2_0" index="0" allow="pedestrian delivery bicycle" speed="8.35" length="3.59" shape="2570.09,1240.38 2569.49,1237.77 2569.56,1236.87"/>
    </edge>
    <edge id=":104523025_3" function="internal">
        <lane id=":104523025_3_0" index="0" disallow="tram rail_urban rail rail_electric rail_fast ship" speed="3.65" length="1.44" shape="2570.09,1240.38 2570.29,1238.95"/>
    </edge>
    <edge id=":104523025_12" function="internal">
        <lane id=":104523025_12_0" index="0" allow="pedestrian delivery bicycle" speed="8.35" length="8.07" shape="2569.56,1236.87 2569.73,1234.75 2570.72,1231.81 2572.35,1229.47"/>
    </edge>
    <edge id=":104523025_13" function="internal">
        <lane id=":104523025_13_0" index="0" disallow="tram rail_urban rail rail_electric rail_fast ship" speed="3.65" length="3.23" shape="2570.29,1238.95 2570.84,1238.24 2571.74,1238.26 2572.98,1239.00"/>
    </edge>
    <edge id=":104523025_4" function="internal">
        <lane id=":104523025_4_0" index="0" allow="pedestrian delivery bicycle" speed="7.00" length="7.97" shape="2574.58,1231.76 2573.19,1233.48 2572.45,1235.26 2572.38,1237.10 2572.98,1239.00"/>
    </edge>
    <edge id=":104523025_5" function="internal">
        <lane id=":104523025_5_0" index="0" allow="pedestrian delivery bicycle" speed="9.72" length="13.41" shape="2574.58,1231.76 2571.85,1233.88 2569.00,1235.28 2565.96,1236.41 2562.68,1237.72"/>
    </edge>
    <edge id=":104523025_6" function="internal">
        <lane id=":104523025_6_0" index="0" allow="pedestrian delivery bicycle" speed="6.68" length="11.98" shape="2574.58,1231.76 2571.79,1233.81 2569.29,1234.21 2567.09,1232.97 2565.18,1230.08"/>
    </edge>
    <edge id=":104523025_7" function="internal">
        <lane id=":104523025_7_0" index="0" allow="pedestrian delivery bicycle" speed="3.65" length="4.67" shape="2574.58,1231.76 2573.16,1232.03 2572.32,1231.74 2572.05,1230.88 2572.35,1229.47"/>
    </edge>
    <edge id=":104523025_8" function="internal">
        <lane id=":104523025_8_0" index="0" allow="pedestrian delivery bicycle" speed="4.77" length="5.45" shape="2568.07,1228.71 2568.94,1230.02 2569.94,1230.59 2571.08,1230.40 2572.35,1229.47"/>
    </edge>
    <edge id=":104523025_9" function="internal">
        <lane id=":104523025_9_0" index="0" disallow="tram rail_urban rail rail_electric rail_fast ship" speed="27.78" length="11.40" shape="2568.07,1228.71 2572.98,1239.00"/>
    </edge>
    <edge id=":104523025_10" function="internal">
        <lane id=":104523025_10_0" index="0" disallow="tram rail_urban rail rail_electric rail_fast ship" speed="7.32" length="2.10" shape="2568.07,1228.71 2568.56,1230.75"/>
    </edge>
    <edge id=":104523025_11" function="internal">
        <lane id=":104523025_11_0" index="0" disallow="tram rail_urban rail rail_electric rail_fast ship" speed="3.65" length="1.44" shape="2568.07,1228.71 2567.86,1230.14"/>
    </edge>
    <edge id=":104523025_14" function="internal">
        <lane id=":104523025_14_0" index="0" disallow="tram rail_urban rail rail_electric rail_fast ship" speed="7.32" length="9.81" shape="2568.56,1230.75 2568.70,1231.31 2568.01,1233.67 2566.00,1235.81 2562.68,1237.72"/>
    </edge>
    <edge id=":104523025_15" function="internal">
        <lane id=":104523025_15_0" index="0" disallow="tram rail_urban rail rail_electric rail_fast ship" speed="3.65" length="3.23" shape="2567.86,1230.14 2567.31,1230.84 2566.42,1230.82 2565.18,1230.08"/>
    </edge>
    <edge id=":104523025_w0" function="walkingarea">
        <lane id=":104523025_w0_0" index="0" allow="pedestrian" speed="1.00" length="8.81" width="3.20" shape="2568.65,1241.07 2571.53,1239.69 2571.53,1239.69 2574.42,1238.31 2575.70,1232.91 2573.47,1230.62 2573.47,1230.62 2571.23,1228.33 2569.51,1228.02 2566.62,1229.40 2566.62,1229.40 2563.73,1230.77 2562.02,1236.26 2563.33,1239.18 2568.03,1240.04 2567.31,1239.29 2566.48,1238.83 2565.54,1238.66 2564.49,1238.78"/>
    </edge>
    <edge id=":104528138_0" function="internal">
        <lane id=":104528138_0_0" index="0" disallow="tram rail_urban rail rail_electric rail_fast ship" speed="3.65" length="4.67" shape="2493.41,1351.99 2493.16,1353.41 2492.59,1354.09 2491.70,1354.05 2490.49,1353.27"/>
    </edge>
    <edge id=":104530275_0" function="internal">
        <lane id=":104530275_0_0" index="0" disallow="tram rail_urban rail rail_electric rail_fast ship" speed="11.18" length="14.77" shape="1965.38,850.52 1961.24,848.39 1958.47,846.12 1956.12,843.99 1953.23,842.27"/>
    </edge>
    <edge id=":104530275_1" function="internal">
        <lane id=":104530275_1_0" index="0" disallow="tram rail_urban rail rail_electric rail_fast ship" speed="3.65" length="2.34" shape="1966.53,847.53 1965.69,846.36 1965.61,845.47"/>
    </edge>
    <edge id=":104530275_6" function="internal">
        <lane id=":104530275_6_0" index="0" disallow="tram rail_urban rail rail_electric rail_fast ship" speed="3.65" length="2.34" shape="1965.61,845.47 1966.27,844.86 1967.67,844.55"/>
    </edge>
    <edge id=":104530275_2" function="internal">
        <lane id=":104530275_2_0" index="0" disallow="tram rail_urban rail rail_electric rail_fast ship" speed="11.18" length="14.64" shape="1954.43,839.31 1957.68,840.09 1960.81,840.16 1964.36,840.37 1968.82,841.56"/>
    </edge>
    <edge id=":104530275_3" function="internal">
        <lane id=":104530275_3_0" index="0" disallow="tram rail_urban rail rail_electric rail_fast ship" speed="3.65" length="1.44" shape="1954.43,839.31 1955.24,840.50"/>
    </edge>
    <edge id=":104530275_7" function="internal">
        <lane id=":104530275_7_0" index="0" disallow="tram rail_urban rail rail_electric rail_fast ship" speed="3.65" length="3.23" shape="1955.24,840.50 1955.31,841.40 1954.64,841.99 1953.23,842.27"/>
    </edge>
    <edge id=":104530275_4" function="internal">
        <lane id=":104530275_4_0" index="0" disallow="tram rail_urban rail rail_electric rail_fast ship" speed="7.31" length="11.67" shape="1955.13,852.48 1956.24,848.81 1956.29,845.88 1955.29,843.70 1953.23,842.27"/>
    </edge>
    <edge id=":104530275_5" function="internal">
        <lane id=":104530275_5_0" index="0" disallow="tram rail_urban rail rail_electric rail_fast ship" speed="8.13" length="14.50" shape="1958.09,853.68 1960.38,848.95 1962.73,845.85 1965.17,844.38 1967.67,844.55"/>
    </edge>
    <edge id=":104530275_w0" function="walkingarea">
        <lane id=":104530275_w0_0" index="0" allow="pedestrian" speed="1.00" length="12.49" width="3.20" shape="1964.80,852.01 1965.95,849.03 1965.95,849.03 1967.10,846.04 1967.10,846.04 1968.25,843.05 1968.25,843.05 1969.40,840.07 1955.03,837.83 1953.83,840.79 1953.83,840.79 1952.62,843.76 1953.64,851.88 1956.61,853.08 1956.61,853.08 1959.58,854.28 1963.62,851.68 1962.57,851.63 1961.63,851.87 1960.82,852.39 1960.14,853.19"/>
    </edge>
    <edge id=":104530285_0" function="internal">
        <lane id=":104530285_0_0" index="0" disallow="tram rail_urban rail rail_electric rail_fast ship" speed="6.51" length="9.03" shape="2091.28,899.77 2088.88,899.17 2086.86,899.49 2085.23,900.71 2083.99,902.85"/>
    </edge>
    <edge id=":104530285_1" function="internal">
        <lane id=":104530285_1_0" index="0" disallow="tram rail_urban rail rail_electric rail_fast ship" speed="11.18" length="14.41" shape="2091.28,899.77 2077.93,894.36"/>
        <lane id=":104530285_1_1" index="1" disallow="tram rail_urban rail rail_electric rail_fast ship" speed="11.18" length="14.41" shape="2092.48,896.80 2079.13,891.39"/>
    </edge>
    <edge id=":104530285_3" function="internal">
        <lane id=":104530285_3_0" index="0" allow="pedestrian delivery bicycle" speed="8.21" length="3.90" shape="2092.48,896.80 2089.14,894.80"/>
    </edge>
    <edge id=":104530285_4" function="internal">
        <lane id=":104530285_4_0" index="0" disallow="tram rail_urban rail rail_electric rail_fast ship" speed="3.65" length="1.44" shape="2092.48,896.80 2091.67,895.61"/>
    </edge>
    <edge id=":104530285_18" function="internal">
        <lane id=":104530285_18_0" index="0" allow="pedestrian delivery bicycle" speed="8.21" length="10.92" shape="2089.14,894.80 2087.24,892.11 2086.80,888.72 2087.80,884.63"/>
    </edge>
    <edge id=":104530285_19" function="internal">
        <lane id=":104530285_19_0" index="0" disallow="tram rail_urban rail rail_electric rail_fast ship" speed="3.65" length="3.23" shape="2091.67,895.61 2091.60,894.72 2092.27,894.13 2093.69,893.84"/>
    </edge>
    <edge id=":104530285_5" function="internal">
        <lane id=":104530285_5_0" index="0" allow="pedestrian delivery bicycle" speed="5.94" length="7.26" shape="2090.78,885.79 2090.61,887.22 2091.24,888.54 2092.66,889.75 2094.89,890.87"/>
    </edge>
    <edge id=":104530285_6" function="internal">
        <lane id=":104530285_6_0" index="0" allow="pedestrian delivery bicycle" speed="9.72" length="18.36" shape="2090.78,885.79 2083.99,902.85"/>
    </edge>
    <edge id=":104530285_7" function="internal">
        <lane id=":104530285_7_0" index="0" allow="pedestrian delivery bicycle" speed="8.12" length="4.47" shape="2090.78,885.79 2088.75,889.48 2088.55,889.65"/>
    </edge>
    <edge id=":104530285_8" function="internal">
        <lane id=":104530285_8_0" index="0" allow="pedestrian delivery bicycle" speed="3.65" length="1.44" shape="2090.78,885.79 2089.60,886.62"/>
    </edge>
    <edge id=":104530285_20" function="internal">
        <lane id=":104530285_20_0" index="0" allow="pedestrian delivery bicycle" speed="8.12" length="10.31" shape="2088.55,889.65 2086.13,891.65 2082.93,892.28 2079.13,891.39"/>
    </edge>
    <edge id=":104530285_21" function="internal">
        <lane id=":104530285_21_0" index="0" allow="pedestrian delivery bicycle" speed="3.65" length="3.23" shape="2089.60,886.62 2088.71,886.70 2088.11,886.04 2087.80,884.63"/>
    </edge>
    <edge id=":104530285_9" function="internal">
        <lane id=":104530285_9_0" index="0" allow="pedestrian delivery bicycle" speed="5.82" length="7.08" shape="2081.53,885.46 2083.85,886.19 2085.67,886.29 2086.99,885.77 2087.80,884.63"/>
    </edge>
    <edge id=":104530285_10" function="internal">
        <lane id=":104530285_10_0" index="0" disallow="tram rail_urban rail rail_electric rail_fast ship" speed="11.18" length="14.42" shape="2081.53,885.46 2094.89,890.87"/>
        <lane id=":104530285_10_1" index="1" disallow="tram rail_urban rail rail_electric rail_fast ship" speed="11.18" length="14.42" shape="2080.33,888.43 2093.69,893.84"/>
    </edge>
    <edge id=":104530285_12" function="internal">
        <lane id=":104530285_12_0" index="0" disallow="tram rail_urban rail rail_electric rail_fast ship" speed="8.67" length="3.72" shape="2080.33,888.43 2083.44,890.45"/>
    </edge>
    <edge id=":104530285_13" function="internal">
        <lane id=":104530285_13_0" index="0" disallow="tram rail_urban rail rail_electric rail_fast ship" speed="3.65" length="1.44" shape="2080.33,888.43 2081.14,889.62"/>
    </edge>
    <edge id=":104530285_22" function="internal">