<?xml version="1.0" encoding="UTF-8"?>

<!-- generated on 2022-06-02 11:28:39 by Eclipse SUMO netedit Version 1.12.0
-->

<routes xmlns:xsi="http://www.w3.org/2001/XMLSchema-instance" xsi:noNamespaceSchemaLocation="http://sumo.dlr.de/xsd/routes_file.xsd">
    <person id="p_0" depart="0.00">
        <personTrip from="322361922#0" to="322361922#1"/>
    </person>
    <trip id="t_0" depart="0.00" from="322361922#0" to="-299800403"/>
    <trip id="t_1" depart="0.00" from="299800403" to="-322361922#0"/>
    <trip id="t_2" depart="0.00" from="-322361922#1" to="320948884#0"/>
    <trip id="t_3" depart="0.00" from="-320948884#0" to="-299800403"/>
    <trip id="t_4" depart="0.00" from="322361922#0" to="322361922#1"/>
    <trip id="t_5" depart="0.00" from="-320948884#0" to="-322361922#0"/>
</routes>
